*version 9.2 1251637604
u 5798
V? 23
R? 108
LIMIT? 2
U? 20
C? 14
E? 5
L? 14
M? 26
D? 33
K? 9
? 10
PM? 2
Q? 23
@libraries
@analysis
.TRAN 1 0 1 1
+0 0ns
+1 5ms
+2 2.5ms
+3 1.57u
+4 400
+5 V(V_sence)
+6 99
.STEP 1 3 4
+ 0 Rn
+ -1 5, 50, 100, 150, 200, 250, 300, 350, 400, 450, 500
.OP 0 
.PROBE 0 1118480 -1 0 1 3
.LIB D:\GIT\MAI\Invertor\Orcad\1_Power_cascade\1STK.lib
@targets
@attributes
@translators
a 0 u 13 0 0 0 hln 100 PCBOARDS=PCB
a 0 u 13 0 0 0 hln 100 PSPICE=PSPICE
a 0 u 13 0 0 0 hln 100 XILINX=XILINX
@setup
unconnectedPins 0
connectViaLabel 0
connectViaLocalLabels 0
NoStim4ExtIFPortsWarnings 1
AutoGenStim4ExtIFPorts 1
@index
pageloc 1 0 74729 
@status
n 0 119:03:21:22:31:10;1555875070 e 
s 2833 119:03:21:22:19:55;1555874395 e 
c 119:03:21:22:26:25;1555874785
e 0 119:03:21:22:31:06;1555875066 e 
u PCBOARDS 119:03:21:22:33:06;1555875186 e 2453 
*page 1 0 505 357 md
@ports
port 67 BUBBLE 1330 910 u
a 1 x 3 0 0 0 hcn 100 LABEL=-15
port 69 BUBBLE 1330 850 H
a 1 x 3 0 0 0 hcn 100 LABEL=+15
port 70 GND_ANALOG 1270 930 h
port 1574 BUBBLE 940 910 u
a 1 x 3 0 0 10 hcn 100 LABEL=-15
port 1575 BUBBLE 940 850 h
a 1 x 3 0 24 8 hcn 100 LABEL=+15
port 1569 BUBBLE 1040 870 h
a 1 x 3 0 0 0 hcn 100 LABEL=+15
port 1568 BUBBLE 1040 930 u
a 1 x 3 0 0 12 hcn 100 LABEL=-15
port 1572 BUBBLE 940 1000 H
a 1 x 3 0 0 0 hcn 100 LABEL=-15
port 1573 BUBBLE 940 1060 U
a 1 x 3 0 0 0 hcn 100 LABEL=+15
port 1577 GND_ANALOG 880 1050 h
port 1570 BUBBLE 1030 980 H
a 1 x 3 0 0 0 hcn 100 LABEL=-15
port 1571 BUBBLE 1030 1040 U
a 1 x 3 0 0 0 hcn 100 LABEL=+15
port 68 BUBBLE 1220 900 D
a 1 x 3 0 2 -12 hcn 100 LABEL=I_sence
port 71 GND_ANALOG 1450 980 h
port 74 BUBBLE 1540 850 H
a 1 x 3 0 0 0 hcn 100 LABEL=+15
port 80 BUBBLE 1580 880 V
a 1 x 3 0 20 12 hcn 100 LABEL=bb
port 73 BUBBLE 1540 910 u
a 1 x 3 0 0 0 hcn 100 LABEL=-15
port 75 GND_ANALOG 1580 920 h
port 76 GND_ANALOG 1500 940 h
port 77 BUBBLE 1540 1050 U
a 1 x 3 0 0 0 hcn 100 LABEL=+15
port 78 BUBBLE 1540 990 H
a 1 x 3 0 0 0 hcn 100 LABEL=-15
port 79 BUBBLE 1490 1080 u
a 1 x 3 0 0 0 hcn 100 LABEL=-15
port 81 GND_ANALOG 1580 1070 h
port 82 BUBBLE 1580 1020 V
a 1 x 3 0 20 8 hcn 100 LABEL=aa
port 72 BUBBLE 1490 800 H
a 1 x 3 0 -4 12 hcn 100 LABEL=+15
port 1582 BUBBLE 840 940 H
a 1 x 3 0 0 0 hcn 100 LABEL=+15
port 1586 GND_ANALOG 840 1020 h
port 467 BUBBLE 100 490 v
a 1 x 3 0 0 0 hcn 100 LABEL=dd
port 466 BUBBLE 190 570 U
a 1 x 3 0 -2 12 hcn 100 LABEL=+15
port 473 BUBBLE 100 590 v
a 1 x 3 0 0 0 hcn 100 LABEL=cc
port 465 BUBBLE 190 510 H
a 1 x 3 0 0 12 hcn 100 LABEL=-15
port 470 GND_ANALOG 260 590 h
port 468 BUBBLE 320 510 H
a 1 x 3 0 -4 10 hcn 100 LABEL=-15
port 469 BUBBLE 320 570 U
a 1 x 3 0 24 12 hcn 100 LABEL=+15
port 850 BUBBLE 80 680 v
a 1 x 3 0 0 0 hcn 100 LABEL=+15
port 851 GND_ANALOG 120 760 h
port 847 BUBBLE 230 730 u
a 1 x 3 0 -4 12 hcn 100 LABEL=-15
port 848 BUBBLE 230 670 h
a 1 x 3 0 24 10 hcn 100 LABEL=+15
port 849 GND_ANALOG 170 870 h
port 845 BUBBLE 230 820 H
a 1 x 3 0 -4 14 hcn 100 LABEL=-15
port 846 BUBBLE 230 880 U
a 1 x 3 0 -2 10 hcn 100 LABEL=+15
port 841 BUBBLE 330 750 u
a 1 x 3 0 0 0 hcn 100 LABEL=-15
port 842 BUBBLE 330 690 h
a 1 x 3 0 0 0 hcn 100 LABEL=+15
port 843 BUBBLE 330 840 H
a 1 x 3 0 0 0 hcn 100 LABEL=-15
port 844 BUBBLE 330 900 U
a 1 x 3 0 0 0 hcn 100 LABEL=+15
port 838 BUBBLE 550 840 u
a 1 x 3 0 0 0 hcn 100 LABEL=-15
port 840 GND_ANALOG 550 960 h
port 856 GND_ANALOG 460 850 h
a 1 s 3 0 18 18 hln 100 LABEL=0
port 839 BUBBLE 550 780 h
a 1 x 3 0 26 10 hcn 100 LABEL=+15
port 307 BUBBLE 220 360 H
a 1 x 3 0 0 0 hcn 100 LABEL=-15
port 309 GND_ANALOG 170 410 h
port 308 BUBBLE 220 420 u
a 1 x 3 0 -4 10 hcn 100 LABEL=+15
port 310 BUBBLE 90 330 D
a 1 x 3 0 2 -18 hcn 100 LABEL=V_sence
port 2066 GND_ANALOG 110 220 h
port 2148 BUBBLE 270 140 d
a 1 x 3 0 0 0 hcn 100 LABEL=+15
port 2256 GND_ANALOG 370 220 h
port 2257 BUBBLE 530 140 d
a 1 x 3 0 0 0 hcn 100 LABEL=-15
port 64 BUBBLE 740 860 H
a 1 x 3 0 0 0 hcn 100 LABEL=-15
port 65 GND_ANALOG 680 910 h
port 66 BUBBLE 740 920 u
a 1 x 3 0 0 0 hcn 100 LABEL=+15
port 3238 BUBBLE 800 230 v
a 1 x 3 0 2 12 hcn 100 LABEL=aa
port 3240 GND_ANALOG 750 300 h
port 4084 GND_ANALOG 1450 300 H
port 4083 BUBBLE 1400 230 V
a 1 x 3 0 0 14 hcn 100 LABEL=bb
port 3431 BUBBLE 1090 400 d
a 1 x 3 0 0 0 hcn 100 LABEL=A1+
port 3432 BUBBLE 1090 510 d
a 1 x 3 0 0 0 hcn 100 LABEL=A1-
port 3434 BUBBLE 1090 590 d
a 1 x 3 0 0 0 hcn 100 LABEL=A2+
port 3575 BUBBLE 1410 400 d
a 1 x 3 0 0 0 hcn 100 LABEL=B1+
port 3576 BUBBLE 1410 510 d
a 1 x 3 0 0 0 hcn 100 LABEL=B1-
port 3577 BUBBLE 1410 590 d
a 1 x 3 0 0 0 hcn 100 LABEL=B2+
port 5478 GND_ANALOG 1090 700 h
port 5479 GND_ANALOG 1410 700 h
port 89 GND_ANALOG 1840 520 h
port 272 GND_ANALOG 1800 470 h
port 339 BUBBLE 1900 520 U
a 1 x 3 0 0 2 hcn 100 LABEL=V_sence
port 271 BUBBLE 1740 470 U
a 1 x 3 0 18 2 hcn 100 LABEL=I_sence
port 616 BUBBLE 1680 360 u
a 1 x 3 0 8 0 hcn 100 LABEL=cc
port 85 BUBBLE 1600 330 v
a 1 x 3 0 18 16 hcn 100 LABEL=A1+
port 5470 BUBBLE 1600 360 v
a 1 x 3 0 18 16 hcn 100 LABEL=A1-
port 5474 BUBBLE 1600 390 v
a 1 x 3 0 18 16 hcn 100 LABEL=B2+
port 88 GND_ANALOG 1670 440 h
port 618 BUBBLE 1980 360 u
a 1 x 3 0 8 0 hcn 100 LABEL=dd
port 5471 BUBBLE 2060 330 d
a 1 x 3 0 0 0 hcn 100 LABEL=B1+
port 5472 BUBBLE 2060 360 d
a 1 x 3 0 0 0 hcn 100 LABEL=B1-
port 5477 BUBBLE 2060 390 d
a 1 x 3 0 0 0 hcn 100 LABEL=B2+
@parts
part 21 TL082 1290 860 h
a 0 ap 9 0 -12 32 hln 100 REFDES=U2A
a 0 sp 11 0 16 32 hln 100 PART=TL082
a 0 s 0:13 0 0 0 hln 100 PKGTYPE=DIP8
a 0 s 0:13 0 0 0 hln 100 GATE=A
a 0 a 0:13 0 0 0 hln 100 PKGREF=U2
part 22 c 1270 900 d
a 0 sp 0 0 0 10 hlb 100 PART=c
a 0 s 0:13 0 0 0 hln 100 PKGTYPE=CK05
a 0 s 0:13 0 0 0 hln 100 GATE=
a 0 u 13 0 23 1 hln 100 VALUE=100p
a 0 a 0:13 0 0 0 hln 100 PKGREF=C1
a 0 ap 9 0 11 -2 hln 100 REFDES=C1
part 23 R 1300 810 U
a 0 u 13 0 27 3 hln 100 VALUE=100k
a 0 sp 0 0 0 10 hlb 100 PART=R
a 0 s 0:13 0 0 0 hln 100 PKGTYPE=RC05
a 0 s 0:13 0 0 0 hln 100 GATE=
a 0 a 0:13 0 0 0 hln 100 PKGREF=R5
a 0 ap 9 0 25 26 hln 100 REFDES=R5
part 1556 R 900 970 h
a 0 sp 0 0 0 10 hlb 100 PART=R
a 0 s 0:13 0 0 0 hln 100 PKGTYPE=RC05
a 0 s 0:13 0 0 0 hln 100 GATE=
a 0 u 13 0 13 25 hln 100 VALUE=10k
a 0 a 0:13 0 0 0 hln 100 PKGREF=R38
a 0 ap 9 0 15 0 hln 100 REFDES=R38
part 1557 TL082 900 860 h
a 0 s 0:13 0 0 0 hln 100 PKGTYPE=DIP8
a 0 s 0:13 0 0 0 hln 100 GATE=A
a 0 a 0:13 0 0 0 hln 100 PKGREF=U14
a 0 ap 9 0 14 0 hln 100 REFDES=U14A
a 0 sp 11 0 14 34 hln 100 PART=TL082
part 1562 TL082 1000 880 h
a 0 s 0:13 0 0 0 hln 100 PKGTYPE=DIP8
a 0 s 0:13 0 0 0 hln 100 GATE=A
a 0 a 0:13 0 0 0 hln 100 PKGREF=U16
a 0 ap 9 0 14 0 hln 100 REFDES=U16A
a 0 sp 11 0 12 32 hln 100 PART=TL082
part 1560 D1N4151 1110 900 u
a 0 s 0:13 0 0 0 hln 100 PKGTYPE=DO-35
a 0 s 0:13 0 0 0 hln 100 GATE=
a 0 a 0:13 0 0 0 hln 100 PKGREF=D7
a 0 ap 9 0 15 0 hln 100 REFDES=D7
a 0 sp 11 0 29 25 hln 100 PART=D1N4151
part 1559 R 890 970 v
a 0 u 13 0 11 5 hln 100 VALUE=10k
a 0 sp 0 0 0 10 hlb 100 PART=R
a 0 s 0:13 0 0 0 hln 100 PKGTYPE=RC05
a 0 s 0:13 0 0 0 hln 100 GATE=
a 0 a 0:13 0 0 0 hln 100 PKGREF=R39
a 0 ap 9 0 23 4 hln 100 REFDES=R39
part 1561 D1N4151 1070 1010 h
a 0 s 0:13 0 0 0 hln 100 PKGTYPE=DO-35
a 0 s 0:13 0 0 0 hln 100 GATE=
a 0 a 0:13 0 0 0 hln 100 PKGREF=D8
a 0 ap 9 0 15 0 hln 100 REFDES=D8
a 0 sp 11 0 5 25 hln 100 PART=D1N4151
part 1558 TL082 900 1050 U
a 0 s 0:13 0 0 0 hln 100 PKGTYPE=DIP8
a 0 s 0:13 0 0 0 hln 100 GATE=A
a 0 a 0:13 0 0 0 hln 100 PKGREF=U15
a 0 ap 9 0 14 0 hln 100 REFDES=U15A
a 0 sp 11 0 36 36 hln 100 PART=TL082
part 1563 TL082 990 1030 U
a 0 s 0:13 0 0 0 hln 100 PKGTYPE=DIP8
a 0 s 0:13 0 0 0 hln 100 GATE=A
a 0 a 0:13 0 0 0 hln 100 PKGREF=U17
a 0 ap 9 0 14 0 hln 100 REFDES=U17A
a 0 sp 11 0 34 34 hln 100 PART=TL082
part 1564 R 1030 810 h
a 0 sp 0 0 0 10 hlb 100 PART=R
a 0 s 0:13 0 0 0 hln 100 PKGTYPE=RC05
a 0 s 0:13 0 0 0 hln 100 GATE=
a 0 u 13 0 13 25 hln 100 VALUE=10k
a 0 a 0:13 0 0 0 hln 100 PKGREF=R40
a 0 ap 9 0 15 0 hln 100 REFDES=R40
part 20 R 1220 900 U
a 0 sp 0 0 0 10 hlb 100 PART=R
a 0 s 0:13 0 0 0 hln 100 PKGTYPE=RC05
a 0 s 0:13 0 0 0 hln 100 GATE=
a 0 u 13 0 23 3 hln 100 VALUE=1k
a 0 a 0:13 0 0 0 hln 100 PKGREF=R4
a 0 ap 9 0 27 24 hln 100 REFDES=R4
part 17 R 1220 810 U
a 0 sp 0 0 0 10 hlb 100 PART=R
a 0 s 0:13 0 0 0 hln 100 PKGTYPE=RC05
a 0 s 0:13 0 0 0 hln 100 GATE=
a 0 u 13 0 25 1 hln 100 VALUE=1k
a 0 a 0:13 0 0 0 hln 100 PKGREF=R3
a 0 ap 9 0 25 26 hln 100 REFDES=R3
part 26 R 1490 850 v
a 0 u 13 0 11 -1 hln 100 VALUE=10k
a 0 sp 0 0 0 10 hlb 100 PART=R
a 0 s 0:13 0 0 0 hln 100 PKGTYPE=RC05
a 0 s 0:13 0 0 0 hln 100 GATE=
a 0 a 0:13 0 0 0 hln 100 PKGREF=R7
a 0 ap 9 0 19 2 hln 100 REFDES=R7
part 30 R 1580 920 V
a 0 u 13 0 11 -1 hln 100 VALUE=10k
a 0 sp 0 0 0 10 hlb 100 PART=R
a 0 s 0:13 0 0 0 hln 100 PKGTYPE=RC05
a 0 s 0:13 0 0 0 hln 100 GATE=
a 0 a 0:13 0 0 0 hln 100 PKGREF=R11
a 0 ap 9 0 19 2 hln 100 REFDES=R11
part 31 TL082 1500 860 h
a 0 sp 11 0 18 34 hln 100 PART=TL082
a 0 s 0:13 0 0 0 hln 100 PKGTYPE=DIP8
a 0 s 0:13 0 0 0 hln 100 GATE=A
a 0 ap 9 0 14 0 hln 100 REFDES=U3A
a 0 a 0:13 0 0 0 hln 100 PKGREF=U3
part 27 R 1490 940 V
a 0 u 13 0 11 -1 hln 100 VALUE=10k
a 0 sp 0 0 0 10 hlb 100 PART=R
a 0 s 0:13 0 0 0 hln 100 PKGTYPE=RC05
a 0 s 0:13 0 0 0 hln 100 GATE=
a 0 a 0:13 0 0 0 hln 100 PKGREF=R8
a 0 ap 9 0 19 2 hln 100 REFDES=R8
part 28 R 1490 990 V
a 0 u 13 0 11 -1 hln 100 VALUE=10k
a 0 sp 0 0 0 10 hlb 100 PART=R
a 0 s 0:13 0 0 0 hln 100 PKGTYPE=RC05
a 0 s 0:13 0 0 0 hln 100 GATE=
a 0 a 0:13 0 0 0 hln 100 PKGREF=R9
a 0 ap 9 0 19 2 hln 100 REFDES=R9
part 29 R 1490 1080 v
a 0 u 13 0 11 -1 hln 100 VALUE=10k
a 0 sp 0 0 0 10 hlb 100 PART=R
a 0 s 0:13 0 0 0 hln 100 PKGTYPE=RC05
a 0 s 0:13 0 0 0 hln 100 GATE=
a 0 a 0:13 0 0 0 hln 100 PKGREF=R10
a 0 ap 9 0 19 2 hln 100 REFDES=R10
part 32 R 1580 1070 V
a 0 u 13 0 11 -1 hln 100 VALUE=10k
a 0 sp 0 0 0 10 hlb 100 PART=R
a 0 s 0:13 0 0 0 hln 100 PKGTYPE=RC05
a 0 s 0:13 0 0 0 hln 100 GATE=
a 0 a 0:13 0 0 0 hln 100 PKGREF=R12
a 0 ap 9 0 19 2 hln 100 REFDES=R12
part 33 TL082 1500 1040 U
a 0 sp 11 0 38 34 hln 100 PART=TL082
a 0 s 0:13 0 0 0 hln 100 PKGTYPE=DIP8
a 0 s 0:13 0 0 0 hln 100 GATE=A
a 0 ap 9 0 14 0 hln 100 REFDES=U4A
a 0 a 0:13 0 0 0 hln 100 PKGREF=U4
part 25 c 1450 950 d
a 0 sp 0 0 0 10 hlb 100 PART=c
a 0 s 0:13 0 0 0 hln 100 PKGTYPE=CK05
a 0 s 0:13 0 0 0 hln 100 GATE=
a 0 u 13 0 23 1 hln 100 VALUE=100p
a 0 a 0:13 0 0 0 hln 100 PKGREF=C2
a 0 ap 9 0 11 -2 hln 100 REFDES=C2
part 24 R 1410 950 U
a 0 u 13 0 25 1 hln 100 VALUE=10k
a 0 sp 0 0 0 10 hlb 100 PART=R
a 0 s 0:13 0 0 0 hln 100 PKGTYPE=RC05
a 0 s 0:13 0 0 0 hln 100 GATE=
a 0 a 0:13 0 0 0 hln 100 PKGREF=R6
a 0 ap 9 0 25 26 hln 100 REFDES=R6
part 1584 R 840 980 v
a 0 sp 0 0 0 10 hlb 100 PART=R
a 0 s 0:13 0 0 0 hln 100 PKGTYPE=RC05
a 0 s 0:13 0 0 0 hln 100 GATE=
a 0 a 0:13 0 0 0 hln 100 PKGREF=R41
a 0 ap 9 0 23 4 hln 100 REFDES=R41
a 0 u 13 0 11 5 hln 100 VALUE=14k
part 1585 R 840 1020 v
a 0 sp 0 0 0 10 hlb 100 PART=R
a 0 s 0:13 0 0 0 hln 100 PKGTYPE=RC05
a 0 s 0:13 0 0 0 hln 100 GATE=
a 0 a 0:13 0 0 0 hln 100 PKGREF=R42
a 0 ap 9 0 23 4 hln 100 REFDES=R42
a 0 u 13 0 11 5 hln 100 VALUE=1k
part 458 R 100 590 h
a 0 sp 0 0 0 10 hlb 100 PART=R
a 0 s 0:13 0 0 0 hln 100 PKGTYPE=RC05
a 0 s 0:13 0 0 0 hln 100 GATE=
a 0 ap 9 0 15 0 hln 100 REFDES=R24
a 0 u 13 0 15 25 hln 100 VALUE=33k
a 0 a 0:13 0 0 0 hln 100 PKGREF=R24
part 457 R 100 490 h
a 0 sp 0 0 0 10 hlb 100 PART=R
a 0 s 0:13 0 0 0 hln 100 PKGTYPE=RC05
a 0 s 0:13 0 0 0 hln 100 GATE=
a 0 ap 9 0 15 0 hln 100 REFDES=R23
a 0 u 13 0 15 25 hln 100 VALUE=32k
a 0 a 0:13 0 0 0 hln 100 PKGREF=R23
part 459 R 140 490 h
a 0 sp 0 0 0 10 hlb 100 PART=R
a 0 s 0:13 0 0 0 hln 100 PKGTYPE=RC05
a 0 s 0:13 0 0 0 hln 100 GATE=
a 0 ap 9 0 15 0 hln 100 REFDES=R25
a 0 u 13 0 15 25 hln 100 VALUE=5k
a 0 a 0:13 0 0 0 hln 100 PKGREF=R25
part 456 TL082 150 560 U
a 0 s 0:13 0 0 0 hln 100 PKGTYPE=DIP8
a 0 s 0:13 0 0 0 hln 100 GATE=A
a 0 ap 9 0 14 0 hln 100 REFDES=U6A
a 0 sp 11 0 38 32 hln 100 PART=TL082
a 0 a 0:13 0 0 0 hln 100 PKGREF=U6
part 461 R 210 590 h
a 0 sp 0 0 0 10 hlb 100 PART=R
a 0 s 0:13 0 0 0 hln 100 PKGTYPE=RC05
a 0 s 0:13 0 0 0 hln 100 GATE=
a 0 u 13 0 15 25 hln 100 VALUE=5k
a 0 a 0:13 0 0 0 hln 100 PKGREF=R27
a 0 ap 9 0 15 0 hln 100 REFDES=R27
part 460 R 230 490 h
a 0 sp 0 0 0 10 hlb 100 PART=R
a 0 s 0:13 0 0 0 hln 100 PKGTYPE=RC05
a 0 s 0:13 0 0 0 hln 100 GATE=
a 0 u 13 0 15 25 hln 100 VALUE=220k
a 0 a 0:13 0 0 0 hln 100 PKGREF=R26
a 0 ap 9 0 15 0 hln 100 REFDES=R26
part 463 C 280 490 h
a 0 sp 0 0 0 10 hlb 100 PART=C
a 0 s 0:13 0 0 0 hln 100 PKGTYPE=CK05
a 0 s 0:13 0 0 0 hln 100 GATE=
a 0 ap 9 0 15 0 hln 100 REFDES=C5
a 0 u 13 0 15 25 hln 100 VALUE=2u
a 0 a 0:13 0 0 0 hln 100 PKGREF=C5
part 462 TL082 280 560 U
a 0 s 0:13 0 0 0 hln 100 PKGTYPE=DIP8
a 0 s 0:13 0 0 0 hln 100 GATE=A
a 0 ap 9 0 14 0 hln 100 REFDES=U7A
a 0 sp 11 0 38 32 hln 100 PART=TL082
a 0 a 0:13 0 0 0 hln 100 PKGREF=U7
part 829 TL431 120 720 H
a 0 s 0:13 0 0 0 hln 100 PKGTYPE=
a 0 a 0:13 0 0 0 hln 100 PKGREF=U11
a 0 ap 9 0 30 14 hln 100 REFDES=U11
a 0 sp 11 0 56 26 hrn 100 PART=TL431
part 831 R 120 680 u
a 0 sp 0 0 0 10 hlb 100 PART=R
a 0 s 0:13 0 0 0 hln 100 PKGTYPE=RC05
a 0 s 0:13 0 0 0 hln 100 GATE=
a 0 u 13 0 25 3 hln 100 VALUE=15k
a 0 a 0:13 0 0 0 hln 100 PKGREF=R34
a 0 ap 9 0 25 22 hln 100 REFDES=R34
part 832 R 150 750 V
a 0 sp 0 0 0 10 hlb 100 PART=R
a 0 s 0:13 0 0 0 hln 100 PKGTYPE=RC05
a 0 s 0:13 0 0 0 hln 100 GATE=
a 0 u 13 0 11 5 hln 100 VALUE=15k
a 0 a 0:13 0 0 0 hln 100 PKGREF=R35
a 0 ap 9 0 23 4 hln 100 REFDES=R35
part 821 R 200 790 h
a 0 sp 0 0 0 10 hlb 100 PART=R
a 0 s 0:13 0 0 0 hln 100 PKGTYPE=RC05
a 0 s 0:13 0 0 0 hln 100 GATE=
a 0 u 13 0 13 25 hln 100 VALUE=10k
a 0 a 0:13 0 0 0 hln 100 PKGREF=R31
a 0 ap 9 0 15 0 hln 100 REFDES=R31
part 824 R 180 790 v
a 0 u 13 0 11 5 hln 100 VALUE=10k
a 0 sp 0 0 0 10 hlb 100 PART=R
a 0 s 0:13 0 0 0 hln 100 PKGTYPE=RC05
a 0 s 0:13 0 0 0 hln 100 GATE=
a 0 a 0:13 0 0 0 hln 100 PKGREF=R32
a 0 ap 9 0 23 4 hln 100 REFDES=R32
part 823 TL082 190 870 U
a 0 s 0:13 0 0 0 hln 100 PKGTYPE=DIP8
a 0 s 0:13 0 0 0 hln 100 GATE=A
a 0 a 0:13 0 0 0 hln 100 PKGREF=U9
a 0 ap 9 0 14 0 hln 100 REFDES=U9A
a 0 sp 11 0 38 36 hln 100 PART=TL082
part 825 D1N4151 400 720 u
a 0 sp 11 0 15 25 hln 100 PART=D1N4151
a 0 s 0:13 0 0 0 hln 100 PKGTYPE=DO-35
a 0 s 0:13 0 0 0 hln 100 GATE=
a 0 a 0:13 0 0 0 hln 100 PKGREF=D5
a 0 ap 9 0 15 0 hln 100 REFDES=D5
part 826 D1N4151 370 870 h
a 0 sp 11 0 15 25 hln 100 PART=D1N4151
a 0 s 0:13 0 0 0 hln 100 PKGTYPE=DO-35
a 0 s 0:13 0 0 0 hln 100 GATE=
a 0 a 0:13 0 0 0 hln 100 PKGREF=D6
a 0 ap 9 0 15 0 hln 100 REFDES=D6
part 830 TL082 190 680 h
a 0 s 0:13 0 0 0 hln 100 PKGTYPE=DIP8
a 0 s 0:13 0 0 0 hln 100 GATE=A
a 0 a 0:13 0 0 0 hln 100 PKGREF=U12
a 0 ap 9 0 14 0 hln 100 REFDES=U12A
a 0 sp 11 0 16 32 hln 100 PART=TL082
part 828 TL082 290 890 U
a 0 s 0:13 0 0 0 hln 100 PKGTYPE=DIP8
a 0 s 0:13 0 0 0 hln 100 GATE=A
a 0 a 0:13 0 0 0 hln 100 PKGREF=U10
a 0 ap 9 0 14 0 hln 100 REFDES=U10A
a 0 sp 11 0 38 34 hln 100 PART=TL082
part 822 TL082 290 700 h
a 0 s 0:13 0 0 0 hln 100 PKGTYPE=DIP8
a 0 s 0:13 0 0 0 hln 100 GATE=A
a 0 a 0:13 0 0 0 hln 100 PKGREF=U8
a 0 ap 9 0 14 0 hln 100 REFDES=U8A
a 0 sp 11 0 14 32 hln 100 PART=TL082
part 816 c 490 920 h
a 0 u 13 0 15 25 hln 100 VALUE=33n
a 0 sp 0 0 0 10 hlb 100 PART=c
a 0 s 0:13 0 0 0 hln 100 PKGTYPE=CK05
a 0 s 0:13 0 0 0 hln 100 GATE=
a 0 a 0:13 0 0 0 hln 100 PKGREF=C6
a 0 ap 9 0 15 0 hln 100 REFDES=C6
part 827 R 400 790 h
a 0 sp 0 0 0 10 hlb 100 PART=R
a 0 s 0:13 0 0 0 hln 100 PKGTYPE=RC05
a 0 s 0:13 0 0 0 hln 100 GATE=
a 0 a 0:13 0 0 0 hln 100 PKGREF=R33
a 0 u 13 0 13 25 hln 100 VALUE=100k
a 0 ap 9 0 17 2 hln 100 REFDES=R33
part 837 R 460 850 v
a 0 sp 0 0 0 10 hlb 100 PART=R
a 0 s 0:13 0 0 0 hln 100 PKGTYPE=RC05
a 0 s 0:13 0 0 0 hln 100 GATE=
a 0 u 13 0 11 5 hln 100 VALUE=22k
a 0 a 0:13 0 0 0 hln 100 PKGREF=R37
a 0 ap 9 0 23 4 hln 100 REFDES=R37
part 819 R 550 960 v
a 0 u 13 0 3 3 hln 100 VALUE=12.06k
a 0 sp 0 0 0 10 hlb 100 PART=R
a 0 s 0:13 0 0 0 hln 100 PKGTYPE=RC05
a 0 s 0:13 0 0 0 hln 100 GATE=
a 0 a 0:13 0 0 0 hln 100 PKGREF=R30
a 0 ap 9 0 15 0 hln 100 REFDES=R30
part 835 TL082 510 790 h
a 0 sp 11 0 0 70 hln 100 PART=TL082
a 0 s 0:13 0 0 0 hln 100 PKGTYPE=DIP8
a 0 s 0:13 0 0 0 hln 100 GATE=A
a 0 a 0:13 0 0 0 hln 100 PKGREF=U13
a 0 ap 9 0 14 0 hln 100 REFDES=U13A
part 818 R 530 890 h
a 0 u 13 0 9 25 hln 100 VALUE=12.06k
a 0 sp 0 0 0 10 hlb 100 PART=R
a 0 s 0:13 0 0 0 hln 100 PKGTYPE=RC05
a 0 s 0:13 0 0 0 hln 100 GATE=
a 0 a 0:13 0 0 0 hln 100 PKGREF=R29
a 0 ap 9 0 15 0 hln 100 REFDES=R29
part 836 R 480 750 h
a 0 u 13 0 15 25 hln 100 VALUE=10k
a 0 sp 0 0 0 10 hlb 100 PART=R
a 0 s 0:13 0 0 0 hln 100 PKGTYPE=RC05
a 0 s 0:13 0 0 0 hln 100 GATE=
a 0 a 0:13 0 0 0 hln 100 PKGREF=R36
a 0 ap 9 0 15 0 hln 100 REFDES=R36
part 817 c 560 920 h
a 0 u 13 0 15 25 hln 100 VALUE=33n
a 0 sp 0 0 0 10 hlb 100 PART=c
a 0 s 0:13 0 0 0 hln 100 PKGTYPE=CK05
a 0 s 0:13 0 0 0 hln 100 GATE=
a 0 a 0:13 0 0 0 hln 100 PKGREF=C7
a 0 ap 9 0 15 0 hln 100 REFDES=C7
part 380 R 100 290 U
a 0 sp 0 0 0 10 hlb 100 PART=R
a 0 s 0:13 0 0 0 hln 100 PKGTYPE=RC05
a 0 s 0:13 0 0 0 hln 100 GATE=
a 0 u 13 0 25 1 hln 100 VALUE=5k
a 0 a 0:13 0 0 0 hln 100 PKGREF=R22
a 0 ap 9 0 25 26 hln 100 REFDES=R22
part 303 R 180 330 U
a 0 sp 0 0 0 10 hlb 100 PART=R
a 0 s 0:13 0 0 0 hln 100 PKGTYPE=RC05
a 0 s 0:13 0 0 0 hln 100 GATE=
a 0 u 13 0 25 1 hln 100 VALUE=5k
a 0 a 0:13 0 0 0 hln 100 PKGREF=R20
a 0 ap 9 0 25 26 hln 100 REFDES=R20
part 301 TL082 180 410 U
a 0 sp 11 0 38 34 hln 100 PART=TL082
a 0 s 0:13 0 0 0 hln 100 PKGTYPE=DIP8
a 0 s 0:13 0 0 0 hln 100 GATE=A
a 0 ap 9 0 6 32 hln 100 REFDES=U5A
a 0 a 0:13 0 0 0 hln 100 PKGREF=U5
part 302 R 130 330 U
a 0 sp 0 0 0 10 hlb 100 PART=R
a 0 s 0:13 0 0 0 hln 100 PKGTYPE=RC05
a 0 s 0:13 0 0 0 hln 100 GATE=
a 0 u 13 0 25 1 hln 100 VALUE=50k
a 0 a 0:13 0 0 0 hln 100 PKGREF=R19
a 0 ap 9 0 25 26 hln 100 REFDES=R19
part 381 c 170 290 u
a 0 sp 0 0 0 10 hlb 100 PART=c
a 0 s 0:13 0 0 0 hln 100 PKGTYPE=CK05
a 0 s 0:13 0 0 0 hln 100 GATE=
a 0 a 0:13 0 0 0 hln 100 PKGREF=C4
a 0 ap 9 0 19 24 hln 100 REFDES=C4
a 0 u 13 0 19 1 hln 100 VALUE=220p
part 2051 Q2N3505 150 120 u
a 0 ap 9 0 9 47 hln 100 REFDES=Q1
a 0 s 0:13 0 0 0 hln 100 PKGTYPE=TO-18
a 0 s 0:13 0 0 0 hln 100 GATE=
a 0 a 0:13 0 0 0 hln 100 PKGREF=Q1
a 0 sp 11 0 9 38 hln 100 PART=Q2N3505
part 2055 R 110 130 v
a 0 u 13 0 11 -3 hln 100 VALUE=2k
a 0 sp 0 0 0 10 hlb 100 PART=R
a 0 s 0:13 0 0 0 hln 100 PKGTYPE=RC05
a 0 s 0:13 0 0 0 hln 100 GATE=
a 0 a 0:13 0 0 0 hln 100 PKGREF=R43
a 0 ap 9 0 21 2 hln 100 REFDES=R43
part 60 VDC 70 160 h
a 0 sp 0 0 22 37 hln 100 PART=VDC
a 1 u 13 0 -11 18 hcn 100 DC=15
a 0 a 0:13 0 0 0 hln 100 PKGREF=V4
a 1 ap 9 0 -10 7 hcn 100 REFDES=V4
part 2058 R 200 120 v
a 0 u 13 0 15 1 hln 100 VALUE=10k
a 0 sp 0 0 0 10 hlb 100 PART=R
a 0 s 0:13 0 0 0 hln 100 PKGTYPE=RC05
a 0 s 0:13 0 0 0 hln 100 GATE=
a 0 a 0:13 0 0 0 hln 100 PKGREF=R46
a 0 ap 9 0 25 2 hln 100 REFDES=R46
part 2060 R 230 120 v
a 0 u 13 0 15 1 hln 100 VALUE=10k
a 0 sp 0 0 0 10 hlb 100 PART=R
a 0 s 0:13 0 0 0 hln 100 PKGTYPE=RC05
a 0 s 0:13 0 0 0 hln 100 GATE=
a 0 a 0:13 0 0 0 hln 100 PKGREF=R47
a 0 ap 9 0 25 2 hln 100 REFDES=R47
part 2062 R 230 160 v
a 0 u 13 0 11 1 hln 100 VALUE=10k
a 0 sp 0 0 0 10 hlb 100 PART=R
a 0 s 0:13 0 0 0 hln 100 PKGTYPE=RC05
a 0 s 0:13 0 0 0 hln 100 GATE=
a 0 a 0:13 0 0 0 hln 100 PKGREF=R48
a 0 ap 9 0 21 2 hln 100 REFDES=R48
part 2063 R 200 160 v
a 0 u 13 0 13 1 hln 100 VALUE=10k
a 0 sp 0 0 0 10 hlb 100 PART=R
a 0 s 0:13 0 0 0 hln 100 PKGTYPE=RC05
a 0 s 0:13 0 0 0 hln 100 GATE=
a 0 a 0:13 0 0 0 hln 100 PKGREF=R49
a 0 ap 9 0 23 2 hln 100 REFDES=R49
part 2053 Q2N3505 250 120 U
a 0 s 0:13 0 0 0 hln 100 PKGTYPE=TO-18
a 0 s 0:13 0 0 0 hln 100 GATE=
a 0 a 0:13 0 0 0 hln 100 PKGREF=Q2
a 0 sp 11 0 17 38 hln 100 PART=Q2N3505
a 0 ap 9 0 -5 47 hln 100 REFDES=Q2
part 2052 TL431 200 190 h
a 0 s 0:13 0 0 0 hln 100 PKGTYPE=
a 0 a 0:13 0 0 0 hln 100 PKGREF=U18
a 0 ap 9 0 -4 8 hln 100 REFDES=U18
a 0 sp 11 0 12 16 hrn 100 PART=TL431
part 2064 R 270 180 v
a 0 u 13 0 15 -1 hln 100 VALUE=10k
a 0 sp 0 0 0 10 hlb 100 PART=R
a 0 s 0:13 0 0 0 hln 100 PKGTYPE=RC05
a 0 s 0:13 0 0 0 hln 100 GATE=
a 0 a 0:13 0 0 0 hln 100 PKGREF=R50
a 0 ap 9 0 25 2 hln 100 REFDES=R50
part 2056 R 110 180 v
a 0 u 13 0 17 -3 hln 100 VALUE=9.5k
a 0 sp 0 0 0 10 hlb 100 PART=R
a 0 s 0:13 0 0 0 hln 100 PKGTYPE=RC05
a 0 s 0:13 0 0 0 hln 100 GATE=
a 0 a 0:13 0 0 0 hln 100 PKGREF=R44
a 0 ap 9 0 25 -2 hln 100 REFDES=R44
part 2057 R 110 220 v
a 0 u 13 0 15 1 hln 100 VALUE=2.5k
a 0 sp 0 0 0 10 hlb 100 PART=R
a 0 s 0:13 0 0 0 hln 100 PKGTYPE=RC05
a 0 s 0:13 0 0 0 hln 100 GATE=
a 0 a 0:13 0 0 0 hln 100 PKGREF=R45
a 0 ap 9 0 23 0 hln 100 REFDES=R45
part 2241 Q2N3505 410 120 u
a 0 s 0:13 0 0 0 hln 100 PKGTYPE=TO-18
a 0 s 0:13 0 0 0 hln 100 GATE=
a 0 sp 11 0 9 38 hln 100 PART=Q2N3505
a 0 a 0:13 0 0 0 hln 100 PKGREF=Q3
a 0 ap 9 0 9 47 hln 100 REFDES=Q3
part 2242 R 370 130 v
a 0 u 13 0 11 -3 hln 100 VALUE=2k
a 0 sp 0 0 0 10 hlb 100 PART=R
a 0 s 0:13 0 0 0 hln 100 PKGTYPE=RC05
a 0 s 0:13 0 0 0 hln 100 GATE=
a 0 a 0:13 0 0 0 hln 100 PKGREF=R51
a 0 ap 9 0 21 2 hln 100 REFDES=R51
part 2244 R 460 120 v
a 0 u 13 0 15 1 hln 100 VALUE=10k
a 0 sp 0 0 0 10 hlb 100 PART=R
a 0 s 0:13 0 0 0 hln 100 PKGTYPE=RC05
a 0 s 0:13 0 0 0 hln 100 GATE=
a 0 a 0:13 0 0 0 hln 100 PKGREF=R52
a 0 ap 9 0 25 2 hln 100 REFDES=R52
part 2246 R 490 120 v
a 0 u 13 0 15 1 hln 100 VALUE=10k
a 0 sp 0 0 0 10 hlb 100 PART=R
a 0 s 0:13 0 0 0 hln 100 PKGTYPE=RC05
a 0 s 0:13 0 0 0 hln 100 GATE=
a 0 a 0:13 0 0 0 hln 100 PKGREF=R53
a 0 ap 9 0 25 2 hln 100 REFDES=R53
part 2248 R 490 160 v
a 0 u 13 0 11 1 hln 100 VALUE=10k
a 0 sp 0 0 0 10 hlb 100 PART=R
a 0 s 0:13 0 0 0 hln 100 PKGTYPE=RC05
a 0 s 0:13 0 0 0 hln 100 GATE=
a 0 a 0:13 0 0 0 hln 100 PKGREF=R54
a 0 ap 9 0 21 2 hln 100 REFDES=R54
part 2249 R 460 160 v
a 0 u 13 0 13 1 hln 100 VALUE=10k
a 0 sp 0 0 0 10 hlb 100 PART=R
a 0 s 0:13 0 0 0 hln 100 PKGTYPE=RC05
a 0 s 0:13 0 0 0 hln 100 GATE=
a 0 a 0:13 0 0 0 hln 100 PKGREF=R55
a 0 ap 9 0 23 2 hln 100 REFDES=R55
part 2250 Q2N3505 510 120 U
a 0 s 0:13 0 0 0 hln 100 PKGTYPE=TO-18
a 0 s 0:13 0 0 0 hln 100 GATE=
a 0 sp 11 0 17 38 hln 100 PART=Q2N3505
a 0 a 0:13 0 0 0 hln 100 PKGREF=Q4
a 0 ap 9 0 -5 47 hln 100 REFDES=Q4
part 2251 TL431 460 190 h
a 0 s 0:13 0 0 0 hln 100 PKGTYPE=
a 0 sp 11 0 12 16 hrn 100 PART=TL431
a 0 a 0:13 0 0 0 hln 100 PKGREF=U19
a 0 ap 9 0 -4 8 hln 100 REFDES=U19
part 2252 R 530 180 v
a 0 u 13 0 15 -1 hln 100 VALUE=10k
a 0 sp 0 0 0 10 hlb 100 PART=R
a 0 s 0:13 0 0 0 hln 100 PKGTYPE=RC05
a 0 s 0:13 0 0 0 hln 100 GATE=
a 0 a 0:13 0 0 0 hln 100 PKGREF=R56
a 0 ap 9 0 25 2 hln 100 REFDES=R56
part 2253 R 370 180 v
a 0 u 13 0 17 -3 hln 100 VALUE=9.5k
a 0 sp 0 0 0 10 hlb 100 PART=R
a 0 s 0:13 0 0 0 hln 100 PKGTYPE=RC05
a 0 s 0:13 0 0 0 hln 100 GATE=
a 0 a 0:13 0 0 0 hln 100 PKGREF=R57
a 0 ap 9 0 25 -2 hln 100 REFDES=R57
part 2254 R 370 220 v
a 0 u 13 0 15 1 hln 100 VALUE=2.5k
a 0 sp 0 0 0 10 hlb 100 PART=R
a 0 s 0:13 0 0 0 hln 100 PKGTYPE=RC05
a 0 s 0:13 0 0 0 hln 100 GATE=
a 0 a 0:13 0 0 0 hln 100 PKGREF=R58
a 0 ap 9 0 23 0 hln 100 REFDES=R58
part 2258 VDC 330 190 u
a 0 sp 0 0 22 37 hln 100 PART=VDC
a 0 a 0:13 0 0 0 hln 100 PKGREF=V13
a 1 u 13 0 29 22 hcn 100 DC=15
a 1 ap 9 0 28 33 hcn 100 REFDES=V13
part 16 R 710 810 U
a 0 sp 0 0 0 10 hlb 100 PART=R
a 0 s 0:13 0 0 0 hln 100 PKGTYPE=RC05
a 0 s 0:13 0 0 0 hln 100 GATE=
a 0 u 13 0 29 1 hln 100 VALUE=100k
a 0 a 0:13 0 0 0 hln 100 PKGREF=R2
a 0 ap 9 0 25 26 hln 100 REFDES=R2
part 19 TL082 700 910 U
a 0 ap 9 0 6 32 hln 100 REFDES=U1A
a 0 sp 11 0 38 34 hln 100 PART=TL082
a 0 s 0:13 0 0 0 hln 100 PKGTYPE=DIP8
a 0 s 0:13 0 0 0 hln 100 GATE=A
a 0 a 0:13 0 0 0 hln 100 PKGREF=U1
part 15 R 660 810 U
a 0 sp 0 0 0 10 hlb 100 PART=R
a 0 s 0:13 0 0 0 hln 100 PKGTYPE=RC05
a 0 s 0:13 0 0 0 hln 100 GATE=
a 0 u 13 0 25 1 hln 100 VALUE=5k
a 0 a 0:13 0 0 0 hln 100 PKGREF=R1
a 0 ap 9 0 25 26 hln 100 REFDES=R1
part 304 R 260 330 U
a 0 sp 0 0 0 10 hlb 100 PART=R
a 0 s 0:13 0 0 0 hln 100 PKGTYPE=RC05
a 0 s 0:13 0 0 0 hln 100 GATE=
a 0 u 13 0 25 1 hln 100 VALUE=5k
a 0 a 0:13 0 0 0 hln 100 PKGREF=R21
a 0 ap 9 0 25 26 hln 100 REFDES=R21
part 464 R 360 490 h
a 0 sp 0 0 0 10 hlb 100 PART=R
a 0 s 0:13 0 0 0 hln 100 PKGTYPE=RC05
a 0 s 0:13 0 0 0 hln 100 GATE=
a 0 u 13 0 15 25 hln 100 VALUE=5k
a 0 ap 9 0 15 0 hln 100 REFDES=R28
a 0 a 0:13 0 0 0 hln 100 PKGREF=R28
part 3180 VDC 750 220 h
a 0 sp 0 0 22 37 hln 100 PART=VDC
a 1 u 13 0 -11 18 hcn 100 DC=15
a 0 a 0:13 0 0 0 hln 100 PKGREF=V16
a 1 ap 9 0 24 7 hcn 100 REFDES=V16
part 3167 R 980 130 v
a 0 s 0 0 0 10 hlb 100 PART=R
a 0 s 0:13 0 0 0 hln 100 PKGTYPE=RC05
a 0 s 0:13 0 0 0 hln 100 GATE=
a 0 u 13 0 3 -5 hln 100 VALUE=3k
a 0 a 0:13 0 0 0 hln 100 PKGREF=R65
a 0 ap 9 0 15 0 hln 100 REFDES=R65
part 3179 R 870 180 v
a 0 s 0 0 0 10 hlb 100 PART=R
a 0 s 0:13 0 0 0 hln 100 PKGTYPE=RC05
a 0 s 0:13 0 0 0 hln 100 GATE=
a 0 u 13 0 3 -5 hln 100 VALUE=10k
a 0 a 0:13 0 0 0 hln 100 PKGREF=R70
a 0 ap 9 0 15 0 hln 100 REFDES=R70
part 3178 R 980 80 v
a 0 s 0 0 0 10 hlb 100 PART=R
a 0 s 0:13 0 0 0 hln 100 PKGTYPE=RC05
a 0 s 0:13 0 0 0 hln 100 GATE=
a 0 a 0:13 0 0 0 hln 100 PKGREF=R69
a 0 ap 9 0 21 6 hln 100 REFDES=R69
a 0 u 13 0 9 5 hln 100 VALUE=470
part 3181 Q2N3505 990 80 U
a 0 s 0:13 0 0 0 hln 100 PKGTYPE=TO-18
a 0 s 0:13 0 0 0 hln 100 GATE=
a 0 sp 11 0 57 20 hln 100 PART=Q2N3505
a 0 a 0:13 0 0 0 hln 100 PKGREF=Q10
a 0 ap 9 0 45 33 hln 100 REFDES=Q10
part 3176 IRFF9110 1040 130 U
a 0 s 0:13 0 0 0 hln 100 PKGTYPE=TO-205AF
a 0 s 0:13 0 0 0 hln 100 GATE=
a 0 sp 11 0 -6 36 hcn 100 PART=IRFF9110
a 0 a 0:13 0 0 0 hln 100 PKGREF=M9
a 0 ap 9 0 5 10 hcn 100 REFDES=M9
part 3229 R 900 90 v
a 0 s 0 0 0 10 hlb 100 PART=R
a 0 s 0:13 0 0 0 hln 100 PKGTYPE=RC05
a 0 s 0:13 0 0 0 hln 100 GATE=
a 0 a 0:13 0 0 0 hln 100 PKGREF=R89
a 0 u 13 0 5 1 hln 100 VALUE=3k
a 0 ap 9 0 19 4 hln 100 REFDES=R89
part 3168 R 980 220 v
a 0 s 0 0 0 10 hlb 100 PART=R
a 0 s 0:13 0 0 0 hln 100 PKGTYPE=RC05
a 0 s 0:13 0 0 0 hln 100 GATE=
a 0 u 13 0 3 -5 hln 100 VALUE=3k
a 0 a 0:13 0 0 0 hln 100 PKGREF=R66
a 0 ap 9 0 15 0 hln 100 REFDES=R66
part 3177 Q2N4014 920 100 h
a 0 s 0:13 0 0 0 hln 100 PKGTYPE=TO-18
a 0 s 0:13 0 0 0 hln 100 GATE=
a 0 a 0:13 0 0 0 hln 100 PKGREF=Q9
a 0 sp 11 0 27 12 hln 100 PART=Q2N4014
a 0 ap 9 0 31 1 hln 100 REFDES=Q9
part 3166 R 800 230 h
a 0 sp 0 0 0 10 hlb 100 PART=R
a 0 s 0:13 0 0 0 hln 100 PKGTYPE=RC05
a 0 s 0:13 0 0 0 hln 100 GATE=
a 0 u 13 0 15 25 hln 100 VALUE=10k
a 0 a 0:13 0 0 0 hln 100 PKGREF=R64
a 0 ap 9 0 15 0 hln 100 REFDES=R64
part 3182 R 1010 220 v
a 0 s 0 0 0 10 hlb 100 PART=R
a 0 s 0:13 0 0 0 hln 100 PKGTYPE=RC05
a 0 s 0:13 0 0 0 hln 100 GATE=
a 0 a 0:13 0 0 0 hln 100 PKGREF=R71
a 0 ap 9 0 23 4 hln 100 REFDES=R71
a 0 u 13 0 11 3 hln 100 VALUE=100
part 3173 Q2N3505 920 180 U
a 0 s 0:13 0 0 0 hln 100 PKGTYPE=TO-18
a 0 s 0:13 0 0 0 hln 100 GATE=
a 0 a 0:13 0 0 0 hln 100 PKGREF=Q7
a 0 sp 11 0 55 24 hln 100 PART=Q2N3505
a 0 ap 9 0 35 35 hln 100 REFDES=Q7
part 3172 Q2N4014 880 200 h
a 0 sp 11 0 25 40 hln 100 PART=Q2N4014
a 0 s 0:13 0 0 0 hln 100 PKGTYPE=TO-18
a 0 s 0:13 0 0 0 hln 100 GATE=
a 0 a 0:13 0 0 0 hln 100 PKGREF=Q6
a 0 ap 9 0 29 27 hln 100 REFDES=Q6
part 3171 Q2N4014 850 230 h
a 0 s 0:13 0 0 0 hln 100 PKGTYPE=TO-18
a 0 s 0:13 0 0 0 hln 100 GATE=
a 0 a 0:13 0 0 0 hln 100 PKGREF=Q5
a 0 sp 11 0 -15 6 hln 100 PART=Q2N4014
a 0 ap 9 0 -15 -3 hln 100 REFDES=Q5
part 3170 R 840 280 v
a 0 s 0 0 0 10 hlb 100 PART=R
a 0 s 0:13 0 0 0 hln 100 PKGTYPE=RC05
a 0 s 0:13 0 0 0 hln 100 GATE=
a 0 u 13 0 3 -5 hln 100 VALUE=1k
a 0 a 0:13 0 0 0 hln 100 PKGREF=R68
a 0 ap 9 0 15 0 hln 100 REFDES=R68
part 3174 Q2N4014 990 260 h
a 0 s 0:13 0 0 0 hln 100 PKGTYPE=TO-18
a 0 s 0:13 0 0 0 hln 100 GATE=
a 0 a 0:13 0 0 0 hln 100 PKGREF=Q8
a 0 sp 11 0 25 36 hln 100 PART=Q2N4014
a 0 ap 9 0 25 17 hln 100 REFDES=Q8
part 3169 R 980 300 v
a 0 s 0 0 0 10 hlb 100 PART=R
a 0 s 0:13 0 0 0 hln 100 PKGTYPE=RC05
a 0 s 0:13 0 0 0 hln 100 GATE=
a 0 a 0:13 0 0 0 hln 100 PKGREF=R67
a 0 u 13 0 3 1 hln 100 VALUE=470
a 0 ap 9 0 15 2 hln 100 REFDES=R67
part 3175 IRFF110 1040 220 h
a 0 sp 11 0 10 40 hcn 100 PART=IRFF110
a 0 s 0:13 0 0 0 hln 100 PKGTYPE=TO-205AF
a 0 s 0:13 0 0 0 hln 100 GATE=
a 0 a 0:13 0 0 0 hln 100 PKGREF=M8
a 0 ap 9 0 -1 50 hcn 100 REFDES=M8
part 3183 L 1070 170 h
a 0 s 0 0 0 10 hlb 100 PART=L
a 0 s 0:13 0 0 0 hln 100 PKGTYPE=L2012C
a 0 s 0:13 0 0 0 hln 100 GATE=
a 0 u 13 0 35 -1 hln 100 VALUE=10m
a 0 a 0:13 0 0 0 hln 100 PKGREF=L8
a 0 ap 9 0 13 -6 hln 100 REFDES=L8
part 4063 VDC 1450 220 H
a 0 sp 0 0 22 37 hln 100 PART=VDC
a 1 u 13 0 -11 18 hcn 100 DC=15
a 0 a 0:13 0 0 0 hln 100 PKGREF=V22
a 1 ap 9 0 24 7 hcn 100 REFDES=V22
part 4064 R 1220 130 V
a 0 s 0 0 0 10 hlb 100 PART=R
a 0 s 0:13 0 0 0 hln 100 PKGTYPE=RC05
a 0 s 0:13 0 0 0 hln 100 GATE=
a 0 u 13 0 3 -5 hln 100 VALUE=3k
a 0 a 0:13 0 0 0 hln 100 PKGREF=R99
a 0 ap 9 0 15 0 hln 100 REFDES=R99
part 4065 R 1330 180 V
a 0 s 0 0 0 10 hlb 100 PART=R
a 0 s 0:13 0 0 0 hln 100 PKGTYPE=RC05
a 0 s 0:13 0 0 0 hln 100 GATE=
a 0 u 13 0 3 -5 hln 100 VALUE=10k
a 0 a 0:13 0 0 0 hln 100 PKGREF=R100
a 0 ap 9 0 15 0 hln 100 REFDES=R100
part 4066 R 1220 80 V
a 0 s 0 0 0 10 hlb 100 PART=R
a 0 s 0:13 0 0 0 hln 100 PKGTYPE=RC05
a 0 s 0:13 0 0 0 hln 100 GATE=
a 0 u 13 0 9 5 hln 100 VALUE=470
a 0 a 0:13 0 0 0 hln 100 PKGREF=R101
a 0 ap 9 0 21 6 hln 100 REFDES=R101
part 4068 Q2N3505 1210 80 u
a 0 s 0:13 0 0 0 hln 100 PKGTYPE=TO-18
a 0 s 0:13 0 0 0 hln 100 GATE=
a 0 sp 11 0 57 20 hln 100 PART=Q2N3505
a 0 a 0:13 0 0 0 hln 100 PKGREF=Q17
a 0 ap 9 0 45 33 hln 100 REFDES=Q17
part 4069 IRFF9110 1160 130 u
a 0 s 0:13 0 0 0 hln 100 PKGTYPE=TO-205AF
a 0 s 0:13 0 0 0 hln 100 GATE=
a 0 sp 11 0 -6 36 hcn 100 PART=IRFF9110
a 0 a 0:13 0 0 0 hln 100 PKGREF=M24
a 0 ap 9 0 5 10 hcn 100 REFDES=M24
part 4070 R 1300 90 V
a 0 s 0 0 0 10 hlb 100 PART=R
a 0 s 0:13 0 0 0 hln 100 PKGTYPE=RC05
a 0 s 0:13 0 0 0 hln 100 GATE=
a 0 u 13 0 5 1 hln 100 VALUE=3k
a 0 a 0:13 0 0 0 hln 100 PKGREF=R102
a 0 ap 9 0 19 4 hln 100 REFDES=R102
part 4071 R 1220 220 V
a 0 s 0 0 0 10 hlb 100 PART=R
a 0 s 0:13 0 0 0 hln 100 PKGTYPE=RC05
a 0 s 0:13 0 0 0 hln 100 GATE=
a 0 u 13 0 3 -5 hln 100 VALUE=3k
a 0 a 0:13 0 0 0 hln 100 PKGREF=R103
a 0 ap 9 0 15 0 hln 100 REFDES=R103