.model Dbreak-X D Is=1e-10 Cjo=330pF Rs=.3 
*$
